#======================================================================

# CRYSTAL DATA

#----------------------------------------------------------------------

data_VESTA_phase_1


_pd_phase_name                         'C3 H8 Zn N2 O6                        '
_cell_length_a                         7.87988
_cell_length_b                         13.71420
_cell_length_c                         7.16100
_cell_angle_alpha                      90
_cell_angle_beta                       90
_cell_angle_gamma                      90
_symmetry_space_group_name_H-M         'P 1'
_symmetry_Int_Tables_number            1

loop_
_symmetry_equiv_pos_as_xyz
   'x, y, z'

loop_
   _atom_site_label
   _atom_site_occupancy
   _atom_site_fract_x
   _atom_site_fract_y
   _atom_site_fract_z
   _atom_site_adp_type
   _atom_site_B_iso_or_equiv
   _atom_site_type_symbol
   O1         1.0     0.105488      0.227604      0.611598     Biso  1.000000 O
   O2         1.0     0.394512      0.772396      0.111598     Biso  1.000000 O
   O3         1.0     0.894512      0.727604      0.888402     Biso  1.000000 O
   O4         1.0     0.605488      0.272396      0.388402     Biso  1.000000 O
   O5         1.0     0.914947      0.158565      0.427240     Biso  1.000000 O
   O6         1.0     0.585053      0.841435      0.927240     Biso  1.000000 O
   O7         1.0     0.085053      0.658565      0.072760     Biso  1.000000 O
   O8         1.0     0.414947      0.341435      0.572760     Biso  1.000000 O
   O9         1.0     0.309012      0.211409      0.897209     Biso  1.000000 O
   O10        1.0     0.190988      0.788591      0.397209     Biso  1.000000 O
   O11        1.0     0.690988      0.711409      0.602791     Biso  1.000000 O
   O12        1.0     0.809012      0.288591      0.102791     Biso  1.000000 O
   O13        1.0     0.507409      0.140933      0.074726     Biso  1.000000 O
   O14        1.0     0.992591      0.859067      0.574726     Biso  1.000000 O
   O15        1.0     0.492591      0.640933      0.425274     Biso  1.000000 O
   O16        1.0     0.007409      0.359067      0.925274     Biso  1.000000 O
   O17        1.0     0.102434      0.456217      0.620278     Biso  1.000000 O
   O18        1.0     0.397566      0.543783      0.120278     Biso  1.000000 O
   O19        1.0     0.897566      0.956217      0.879722     Biso  1.000000 O
   O20        1.0     0.602434      0.043783      0.379722     Biso  1.000000 O
   O21        1.0     0.122784      0.575053      0.409733     Biso  1.000000 O
   O22        1.0     0.377216      0.424947      0.909733     Biso  1.000000 O
   O23        1.0     0.877216      0.075053      0.090267     Biso  1.000000 O
   O24        1.0     0.622784      0.924947      0.590267     Biso  1.000000 O
   C1         1.0     0.977139      0.232340      0.506648     Biso  1.000000 C
   C2         1.0     0.522861      0.767660      0.006648     Biso  1.000000 C
   C3         1.0     0.022861      0.732340      0.993352     Biso  1.000000 C
   C4         1.0     0.477139      0.267660      0.493352     Biso  1.000000 C
   C5         1.0     0.444864      0.214126      0.992541     Biso  1.000000 C
   C6         1.0     0.055136      0.785873      0.492541     Biso  1.000000 C
   C7         1.0     0.555136      0.714127      0.507459     Biso  1.000000 C
   C8         1.0     0.944864      0.285874      0.007459     Biso  1.000000 C
   C9         1.0     0.187446      0.507296      0.505512     Biso  1.000000 C
   C10        1.0     0.312554      0.492704      0.005512     Biso  1.000000 C
   C11        1.0     0.812554      0.007296      0.994488     Biso  1.000000 C
   C12        1.0     0.687446      0.992704      0.494488     Biso  1.000000 C
   H1         1.0     0.916247      0.304756      0.482838     Biso  1.000000 H
   H2         1.0     0.583753      0.695244      0.982838     Biso  1.000000 H
   H3         1.0     0.083753      0.804756      0.017162     Biso  1.000000 H
   H4         1.0     0.416247      0.195244      0.517162     Biso  1.000000 H
   H5         1.0     0.510794      0.285517      0.003996     Biso  1.000000 H
   H6         1.0     0.989206      0.714483      0.503996     Biso  1.000000 H
   H7         1.0     0.489206      0.785517      0.496004     Biso  1.000000 H
   H8         1.0     0.010794      0.214483      0.996004     Biso  1.000000 H
   H9         1.0     0.324662      0.490884      0.489884     Biso  1.000000 H
   H10        1.0     0.175338      0.509116      0.989884     Biso  1.000000 H
   H11        1.0     0.675338      0.990884      0.010116     Biso  1.000000 H
   H12        1.0     0.824662      0.009116      0.510116     Biso  1.000000 H
   H13        1.0     0.064733      0.021864      0.777687     Biso  1.000000 H
   H14        1.0     0.435267      0.978136      0.277687     Biso  1.000000 H
   H15        1.0     0.935267      0.521864      0.722313     Biso  1.000000 H
   H16        1.0     0.564733      0.478136      0.222313     Biso  1.000000 H
   H17        1.0     0.195792      0.037770      0.585795     Biso  1.000000 H
   H18        1.0     0.304208      0.962230      0.085795     Biso  1.000000 H
   H19        1.0     0.804208      0.537770      0.914205     Biso  1.000000 H
   H20        1.0     0.695792      0.462230      0.414205     Biso  1.000000 H
   H21        1.0     0.229608      0.104018      0.790365     Biso  1.000000 H
   H22        1.0     0.270392      0.895982      0.290365     Biso  1.000000 H
   H23        1.0     0.770392      0.604018      0.709635     Biso  1.000000 H
   H24        1.0     0.729608      0.395982      0.209635     Biso  1.000000 H
   H25        1.0     0.408048      0.957860      0.761535     Biso  1.000000 H
   H26        1.0     0.091952      0.042140      0.261535     Biso  1.000000 H
   H27        1.0     0.591952      0.457860      0.738465     Biso  1.000000 H
   H28        1.0     0.908048      0.542140      0.238465     Biso  1.000000 H
   H29        1.0     0.229729      0.895761      0.778549     Biso  1.000000 H
   H30        1.0     0.270271      0.104239      0.278549     Biso  1.000000 H
   H31        1.0     0.770271      0.395761      0.721451     Biso  1.000000 H
   H32        1.0     0.729729      0.604239      0.221451     Biso  1.000000 H
   N1         1.0     0.190487      0.036228      0.734583     Biso  1.000000 N
   N2         1.0     0.309513      0.963772      0.234583     Biso  1.000000 N
   N3         1.0     0.809513      0.536228      0.765417     Biso  1.000000 N
   N4         1.0     0.690487      0.463772      0.265417     Biso  1.000000 N
   N5         1.0     0.287954      0.959416      0.819824     Biso  1.000000 N
   N6         1.0     0.212046      0.040584      0.319824     Biso  1.000000 N
   N7         1.0     0.712046      0.459416      0.680176     Biso  1.000000 N
   N8         1.0     0.787954      0.540584      0.180176     Biso  1.000000 N
   Zn1        1.0     0.217469      0.337239      0.753758     Biso  1.000000 Zn
   Zn2        1.0     0.282531      0.662761      0.253758     Biso  1.000000 Zn
   Zn3        1.0     0.782531      0.837239      0.746242     Biso  1.000000 Zn
   Zn4        1.0     0.717469      0.162761      0.246242     Biso  1.000000 Zn
