#======================================================================

# CRYSTAL DATA

#----------------------------------------------------------------------

data_VESTA_phase_1


_pd_phase_name                         'C3 H8 N2 O6 Zn                        '
_cell_length_a                         8.50230
_cell_length_b                         7.64019
_cell_length_c                         11.27095
_cell_angle_alpha                      90
_cell_angle_beta                       90
_cell_angle_gamma                      90
_symmetry_space_group_name_H-M         'P 1'
_symmetry_Int_Tables_number            1

loop_
_symmetry_equiv_pos_as_xyz
   'x, y, z'

loop_
   _atom_site_label
   _atom_site_occupancy
   _atom_site_fract_x
   _atom_site_fract_y
   _atom_site_fract_z
   _atom_site_adp_type
   _atom_site_B_iso_or_equiv
   _atom_site_type_symbol
   O1         1.0     0.322586      0.427307      0.180117     Biso  1.000000 O
   O2         1.0     0.677414      0.572694      0.680117     Biso  1.000000 O
   O3         1.0     0.822586      0.072694      0.180117     Biso  1.000000 O
   O4         1.0     0.177414      0.927306      0.680117     Biso  1.000000 O
   O5         1.0     0.129401      0.230219      0.181780     Biso  1.000000 O
   O6         1.0     0.870599      0.769781      0.681780     Biso  1.000000 O
   O7         1.0     0.629401      0.269781      0.181780     Biso  1.000000 O
   O8         1.0     0.370599      0.730219      0.681780     Biso  1.000000 O
   O9         1.0     0.446096      0.726094      0.035128     Biso  1.000000 O
   O10        1.0     0.553904      0.273906      0.535128     Biso  1.000000 O
   O11        1.0     0.946096      0.773906      0.035128     Biso  1.000000 O
   O12        1.0     0.053904      0.226094      0.535128     Biso  1.000000 O
   O13        1.0     0.254152      0.925101      0.037054     Biso  1.000000 O
   O14        1.0     0.745848      0.074899      0.537054     Biso  1.000000 O
   O15        1.0     0.754152      0.574899      0.037054     Biso  1.000000 O
   O16        1.0     0.245848      0.425101      0.537054     Biso  1.000000 O
   O17        1.0     0.563732      0.651119      0.264040     Biso  1.000000 O
   O18        1.0     0.436268      0.348881      0.764040     Biso  1.000000 O
   O19        1.0     0.063732      0.848881      0.264040     Biso  1.000000 O
   O20        1.0     0.936268      0.151119      0.764040     Biso  1.000000 O
   O21        1.0     0.505659      0.643040      0.456982     Biso  1.000000 O
   O22        1.0     0.494341      0.356960      0.956982     Biso  1.000000 O
   O23        1.0     0.005659      0.856960      0.456982     Biso  1.000000 O
   O24        1.0     0.994341      0.143040      0.956982     Biso  1.000000 O
   C1         1.0     0.268732      0.277939      0.155281     Biso  1.000000 C
   C2         1.0     0.731268      0.722061      0.655281     Biso  1.000000 C
   C3         1.0     0.768732      0.222061      0.155281     Biso  1.000000 C
   C4         1.0     0.231268      0.777939      0.655281     Biso  1.000000 C
   C5         1.0     0.321647      0.789788      0.078703     Biso  1.000000 C
   C6         1.0     0.678353      0.210212      0.578703     Biso  1.000000 C
   C7         1.0     0.821647      0.710212      0.078703     Biso  1.000000 C
   C8         1.0     0.178353      0.289788      0.578703     Biso  1.000000 C
   C9         1.0     0.539785      0.568080      0.360319     Biso  1.000000 C
   C10        1.0     0.460215      0.431920      0.860319     Biso  1.000000 C
   C11        1.0     0.039785      0.931920      0.360319     Biso  1.000000 C
   C12        1.0     0.960215      0.068080      0.860319     Biso  1.000000 C
   H1         1.0     0.344448      0.183297      0.107221     Biso  1.000000 H
   H2         1.0     0.655552      0.816703      0.607221     Biso  1.000000 H
   H3         1.0     0.844448      0.316703      0.107221     Biso  1.000000 H
   H4         1.0     0.155552      0.683297      0.607221     Biso  1.000000 H
   H5         1.0     0.268180      0.724951      0.156861     Biso  1.000000 H
   H6         1.0     0.731820      0.275049      0.656861     Biso  1.000000 H
   H7         1.0     0.768180      0.775049      0.156861     Biso  1.000000 H
   H8         1.0     0.231820      0.224951      0.656861     Biso  1.000000 H
   H9         1.0     0.549143      0.423561      0.358423     Biso  1.000000 H
   H10        1.0     0.450857      0.576439      0.858423     Biso  1.000000 H
   H11        1.0     0.049143      0.076439      0.358423     Biso  1.000000 H
   H12        1.0     0.950857      0.923561      0.858423     Biso  1.000000 H
   H13        1.0     0.069187      0.631021      0.299870     Biso  1.000000 H
   H14        1.0     0.930813      0.368979      0.799870     Biso  1.000000 H
   H15        1.0     0.569187      0.868979      0.299870     Biso  1.000000 H
   H16        1.0     0.430813      0.131022      0.799870     Biso  1.000000 H
   H17        1.0     0.070095      0.407417      0.274048     Biso  1.000000 H
   H18        1.0     0.929905      0.592583      0.774048     Biso  1.000000 H
   H19        1.0     0.570095      0.092583      0.274048     Biso  1.000000 H
   H20        1.0     0.429905      0.907417      0.774048     Biso  1.000000 H
   H21        1.0     0.149098      0.487119      0.402110     Biso  1.000000 H
   H22        1.0     0.850901      0.512881      0.902110     Biso  1.000000 H
   H23        1.0     0.649099      0.012881      0.402110     Biso  1.000000 H
   H24        1.0     0.350902      0.987119      0.902110     Biso  1.000000 H
   H25        1.0     0.898258      0.612154      0.441239     Biso  1.000000 H
   H26        1.0     0.101742      0.387846      0.941239     Biso  1.000000 H
   H27        1.0     0.398258      0.887846      0.441239     Biso  1.000000 H
   H28        1.0     0.601742      0.112154      0.941239     Biso  1.000000 H
   H29        1.0     0.916595      0.395910      0.455151     Biso  1.000000 H
   H30        1.0     0.083405      0.604091      0.955151     Biso  1.000000 H
   H31        1.0     0.416595      0.104090      0.455151     Biso  1.000000 H
   H32        1.0     0.583405      0.895909      0.955151     Biso  1.000000 H
   N1         1.0     0.058525      0.505394      0.339105     Biso  1.000000 N
   N2         1.0     0.941475      0.494606      0.839105     Biso  1.000000 N
   N3         1.0     0.558525      0.994606      0.339105     Biso  1.000000 N
   N4         1.0     0.441475      0.005394      0.839105     Biso  1.000000 N
   N5         1.0     0.906063      0.496419      0.394177     Biso  1.000000 N
   N6         1.0     0.093937      0.503581      0.894177     Biso  1.000000 N
   N7         1.0     0.406063      0.003581      0.394177     Biso  1.000000 N
   N8         1.0     0.593937      0.996419      0.894177     Biso  1.000000 N
   Zn1        1.0     0.539921      0.499563      0.109719     Biso  1.000000 Zn
   Zn2        1.0     0.460079      0.500437      0.609719     Biso  1.000000 Zn
   Zn3        1.0     0.039921      1.000437      0.109719     Biso  1.000000 Zn
   Zn4        1.0     0.960079     -0.000437      0.609719     Biso  1.000000 Zn
