#======================================================================

# CRYSTAL DATA

#----------------------------------------------------------------------

data_VESTA_phase_1


_pd_phase_name                         'ISIF 4 calc                           '
_cell_length_a                         8.69547
_cell_length_b                         8.71530
_cell_length_c                         12.83441
_cell_angle_alpha                      89.62557
_cell_angle_beta                       89.49934
_cell_angle_gamma                      89.95547
_symmetry_space_group_name_H-M         'P 1'
_symmetry_Int_Tables_number            1

loop_
_symmetry_equiv_pos_as_xyz
   'x, y, z'

loop_
   _atom_site_label
   _atom_site_occupancy
   _atom_site_fract_x
   _atom_site_fract_y
   _atom_site_fract_z
   _atom_site_adp_type
   _atom_site_B_iso_or_equiv
   _atom_site_type_symbol
   C1         1.0     0.778879      0.248317      0.250007     Biso  1.000000 C
   C2         1.0     0.281329      0.795018      0.249664     Biso  1.000000 C
   C3         1.0     0.794530      0.281851      0.748933     Biso  1.000000 C
   C4         1.0     0.248465      0.779431      0.750301     Biso  1.000000 C
   N1         1.0     0.676532      0.357416      0.195292     Biso  1.000000 N
   N2         1.0     0.178568      0.684010      0.198230     Biso  1.000000 N
   N3         1.0     0.684801      0.177451      0.697758     Biso  1.000000 N
   N4         1.0     0.356784      0.675820      0.695630     Biso  1.000000 N
   H1         1.0     0.401096      0.769277      0.227587     Biso  1.000000 H
   H2         1.0     0.266457      0.784546      0.334597     Biso  1.000000 H
   H3         1.0     0.251151      0.911551      0.223492     Biso  1.000000 H
   H4         1.0     0.203368      0.570778      0.219846     Biso  1.000000 H
   H5         1.0     0.190125      0.690659      0.117601     Biso  1.000000 H
   H6         1.0     0.062713      0.704665      0.216076     Biso  1.000000 H
   H7         1.0     0.686560      0.345458      0.114941     Biso  1.000000 H
   H8         1.0     0.702997      0.471440      0.212866     Biso  1.000000 H
   H9         1.0     0.560770      0.338896      0.214749     Biso  1.000000 H
   H10        1.0     0.898606      0.271359      0.226295     Biso  1.000000 H
   H11        1.0     0.747344      0.130643      0.228301     Biso  1.000000 H
   H12        1.0     0.765173      0.263558      0.334565     Biso  1.000000 H
   H13        1.0     0.703954      0.062667      0.718379     Biso  1.000000 H
   H14        1.0     0.695275      0.184462      0.617082     Biso  1.000000 H
   H15        1.0     0.570616      0.203872      0.716842     Biso  1.000000 H
   H16        1.0     0.912171      0.249893      0.725442     Biso  1.000000 H
   H17        1.0     0.780576      0.271124      0.833912     Biso  1.000000 H
   H18        1.0     0.770372      0.400329      0.723888     Biso  1.000000 H
   H19        1.0     0.471391      0.702759      0.711761     Biso  1.000000 H
   H20        1.0     0.343074      0.683363      0.615328     Biso  1.000000 H
   H21        1.0     0.338679      0.560849      0.716513     Biso  1.000000 H
   H22        1.0     0.271127      0.898196      0.724987     Biso  1.000000 H
   H23        1.0     0.265308      0.768063      0.834814     Biso  1.000000 H
   H24        1.0     0.130096      0.747355      0.730194     Biso  1.000000 H
   Pb1        1.0     0.259311      0.266706      0.988847     Biso  1.000000 Pb
   Pb2        1.0     0.267697      0.260310      0.488837     Biso  1.000000 Pb
   Pb3        1.0     0.780121      0.762077      0.489598     Biso  1.000000 Pb
   Pb4        1.0     0.760813      0.779839      0.989510     Biso  1.000000 Pb
   I1         1.0     0.453116      0.580368      0.994913     Biso  1.000000 I
   I2         1.0     0.074405      0.959069      0.997617     Biso  1.000000 I
   I3         1.0     0.957612      0.470845      0.998636     Biso  1.000000 I
   I4         1.0     0.580279      0.093615      0.989671     Biso  1.000000 I
   I5         1.0     0.093693      0.580165      0.490051     Biso  1.000000 I
   I6         1.0     0.470828      0.958646      0.499646     Biso  1.000000 I
   I7         1.0     0.581011      0.454848      0.494908     Biso  1.000000 I
   I8         1.0     0.959161      0.075352      0.496719     Biso  1.000000 I
   I9         1.0     0.273985      0.282514      0.239907     Biso  1.000000 I
   I10        1.0     0.282709      0.273916      0.739889     Biso  1.000000 I
   I11        1.0     0.755636      0.772800      0.741688     Biso  1.000000 I
   I12        1.0     0.772731      0.755846      0.241686     Biso  1.000000 I
