#======================================================================

# CRYSTAL DATA

#----------------------------------------------------------------------

data_VESTA_phase_1


_pd_phase_name                         'ISIF 4 calc                           '
_cell_length_a                         3.90724
_cell_length_b                         3.90724
_cell_length_c                         3.90724
_cell_angle_alpha                      90
_cell_angle_beta                       90
_cell_angle_gamma                      90
_symmetry_space_group_name_H-M         'P 1'
_symmetry_Int_Tables_number            1

loop_
_symmetry_equiv_pos_as_xyz
   'x, y, z'

loop_
   _atom_site_label
   _atom_site_occupancy
   _atom_site_fract_x
   _atom_site_fract_y
   _atom_site_fract_z
   _atom_site_adp_type
   _atom_site_B_iso_or_equiv
   _atom_site_type_symbol
   Sr1        1.0     0.000000      0.000000      0.000000     Biso  1.000000 Sr
   Ti1        1.0     0.500000      0.500000      0.500000     Biso  1.000000 Ti
   O1         1.0     0.500000      0.500000      0.000000     Biso  1.000000 O
   O2         1.0     0.500000      0.000000      0.500000     Biso  1.000000 O
   O3         1.0     0.000000      0.500000      0.500000     Biso  1.000000 O
