#======================================================================

# CRYSTAL DATA

#----------------------------------------------------------------------

data_VESTA_phase_1


_pd_phase_name                         'ISIF 4 calc                           '
_cell_length_a                         5.53015
_cell_length_b                         5.53015
_cell_length_c                         13.49089
_cell_angle_alpha                      90
_cell_angle_beta                       90
_cell_angle_gamma                      120
_symmetry_space_group_name_H-M         'P 1'
_symmetry_Int_Tables_number            1

loop_
_symmetry_equiv_pos_as_xyz
   'x, y, z'

loop_
   _atom_site_label
   _atom_site_occupancy
   _atom_site_fract_x
   _atom_site_fract_y
   _atom_site_fract_z
   _atom_site_adp_type
   _atom_site_B_iso_or_equiv
   _atom_site_type_symbol
   St1        1.0    -0.000000     -0.000000      0.247625     Biso  1.000000 St
   St2        1.0    -0.000000     -0.000000      0.747625     Biso  1.000000 St
   St3        1.0     0.666667      0.333333      0.580959     Biso  1.000000 St
   St4        1.0     0.666667      0.333333      0.080959     Biso  1.000000 St
   St5        1.0     0.333333      0.666666      0.914292     Biso  1.000000 St
   St6        1.0     0.333333      0.666666      0.414292     Biso  1.000000 St
   Ti1        1.0    -0.000000     -0.000000      0.997551     Biso  1.000000 Ti
   Ti2        1.0    -0.000000     -0.000000      0.497551     Biso  1.000000 Ti
   Ti3        1.0     0.666667      0.333333      0.330884     Biso  1.000000 Ti
   Ti4        1.0     0.666667      0.333333      0.830884     Biso  1.000000 Ti
   Ti5        1.0     0.333333      0.666666      0.664217     Biso  1.000000 Ti
   Ti6        1.0     0.333333      0.666666      0.164217     Biso  1.000000 Ti
   O1         1.0     0.135829      0.333921      0.078075     Biso  1.000000 O
   O2         1.0     0.666079      0.801907      0.078075     Biso  1.000000 O
   O3         1.0     0.198092      0.864171      0.078075     Biso  1.000000 O
   O4         1.0     0.666079      0.864171      0.578075     Biso  1.000000 O
   O5         1.0     0.198092      0.333921      0.578075     Biso  1.000000 O
   O6         1.0     0.135828      0.801907      0.578075     Biso  1.000000 O
   O7         1.0     0.802495      0.667254      0.411408     Biso  1.000000 O
   O8         1.0     0.332746      0.135240      0.411408     Biso  1.000000 O
   O9         1.0     0.864759      0.197505      0.411408     Biso  1.000000 O
   O10        1.0     0.332746      0.197505      0.911408     Biso  1.000000 O
   O11        1.0     0.864759      0.667254      0.911408     Biso  1.000000 O
   O12        1.0     0.802495      0.135240      0.911408     Biso  1.000000 O
   O13        1.0     0.469162      0.000588      0.744742     Biso  1.000000 O
   O14        1.0     0.999412      0.468574      0.744742     Biso  1.000000 O
   O15        1.0     0.531425      0.530838      0.744742     Biso  1.000000 O
   O16        1.0     0.999413      0.530838      0.244742     Biso  1.000000 O
   O17        1.0     0.531426      0.000588      0.244742     Biso  1.000000 O
   O18        1.0     0.469161      0.468574      0.244742     Biso  1.000000 O
